# CIF file created by FINDSYM, version 7.1.3

data_findsym-output
_audit_creation_method FINDSYM

_cell_length_a     15.1955683624
_cell_length_b     8.7731652838
_cell_length_c     10.3914003123
_cell_angle_alpha  90.0000000000
_cell_angle_beta   104.1061723083
_cell_angle_gamma  90.0000000000
_cell_volume       1343.5381716525

_symmetry_space_group_name_H-M "C 1 m 1"
_symmetry_Int_Tables_number 8
_space_group.reference_setting '008:C -2y'
_space_group.transform_Pp_abc a,b,c;0,0,0

loop_
_space_group_symop_id
_space_group_symop_operation_xyz
1 x,y,z
2 x,-y,z
3 x+1/2,y+1/2,z
4 x+1/2,-y+1/2,z

loop_
_atom_type_symbol
Bi    
Te    

loop_
_atom_site_label
_atom_site_type_symbol
_atom_site_symmetry_multiplicity
_atom_site_Wyckoff_symbol
_atom_site_fract_x
_atom_site_fract_y
_atom_site_fract_z
_atom_site_occupancy
_atom_site_fract_symmform
Bi1 Bi   2 a  0.2957250000  0.0000000000  0.7897800000  1.0000000000 Dx,0,Dz  
Bi2 Bi   2 a  0.6978700000  0.0000000000  0.1941600000  1.0000000000 Dx,0,Dz  
Bi3 Bi   4 b  0.5501250000  0.2534650000  0.7934600000  1.0000000000 Dx,Dy,Dz 
Bi4 Bi   4 b -0.0496075000  0.2508775000  0.2004900000  1.0000000000 Dx,Dy,Dz 
Bi5 Bi   2 a  0.8015700000  0.0000000000  0.8054800000  1.0000000000 Dx,0,Dz  
Bi6 Bi   2 a  0.2014800000  0.0000000000  0.2061400000  1.0000000000 Dx,0,Dz  
Bi7 Bi   2 a  0.0998700000  0.0000000000  0.6065200000  1.0000000000 Dx,0,Dz  
Te1 Te   2 a  0.3963900000  0.0000000000  0.3761400000  1.0000000000 Dx,0,Dz  
Te2 Te   2 a  0.6053700000  0.0000000000  0.6302400000  1.0000000000 Dx,0,Dz  
Te3 Te   4 b  0.6458850000  0.2501450000  0.3759200000  1.0000000000 Dx,Dy,Dz 
Te4 Te   4 b  0.8550650000  0.2490850000  0.6295200000  1.0000000000 Dx,Dy,Dz 
Te5 Te   2 a  0.8956200000  0.0000000000  0.3742200000  1.0000000000 Dx,0,Dz  
Te6 Te   2 a  0.0011200000  0.0000000000  0.0033400000  1.0000000000 Dx,0,Dz  
Te7 Te   4 b  0.2504700000  0.2493200000  0.0034600000  1.0000000000 Dx,Dy,Dz 
Te8 Te   2 a  0.5011100000  0.0000000000  0.0083200000  1.0000000000 Dx,0,Dz
