# CIF file created by FINDSYM, version 7.1.3

data_findsym-output
_audit_creation_method FINDSYM

_cell_length_a     7.5977879185
_cell_length_b     4.3865804842
_cell_length_c     20.3145955848
_cell_angle_alpha  90.0000000000
_cell_angle_beta   97.1615915695
_cell_angle_gamma  90.0000000000
_cell_volume       671.7690858260

_symmetry_space_group_name_H-M "P 1 2/m 1"
_symmetry_Int_Tables_number 10
_space_group.reference_setting '010:-P 2y'
_space_group.transform_Pp_abc a,b,c;0,0,0

loop_
_space_group_symop_id
_space_group_symop_operation_xyz
1 x,y,z
2 -x,y,-z
3 -x,-y,-z
4 x,-y,z

loop_
_atom_type_symbol
Bi    
Te    

loop_
_atom_site_label
_atom_site_type_symbol
_atom_site_symmetry_multiplicity
_atom_site_Wyckoff_symbol
_atom_site_fract_x
_atom_site_fract_y
_atom_site_fract_z
_atom_site_occupancy
_atom_site_fract_symmform
Bi1 Bi   2 m  0.2983300000  0.0000000000  0.8981125000  1.0000000000 Dx,0,Dz 
Bi2 Bi   2 n  0.2997300000  0.5000000000  0.3990075000  1.0000000000 Dx,0,Dz 
Bi3 Bi   2 m  0.7989400000  0.0000000000  0.3992900000  1.0000000000 Dx,0,Dz 
Bi4 Bi   2 n  0.7976200000  0.5000000000 -0.0999600000  1.0000000000 Dx,0,Dz 
Bi5 Bi   1 e  0.5000000000  0.5000000000  0.0000000000  1.0000000000 0,0,0   
Te1 Te   1 a  0.0000000000  0.0000000000  0.0000000000  1.0000000000 0,0,0   
Te2 Te   1 f  0.0000000000  0.5000000000  0.5000000000  1.0000000000 0,0,0   
Te3 Te   1 g  0.5000000000  0.0000000000  0.5000000000  1.0000000000 0,0,0   
Te4 Te   2 m  0.3951700000  0.0000000000  0.1867700000  1.0000000000 Dx,0,Dz 
Te5 Te   2 n  0.3954900000  0.5000000000  0.6873900000  1.0000000000 Dx,0,Dz 
Te6 Te   2 m  0.8965600000  0.0000000000  0.6872000000  1.0000000000 Dx,0,Dz 
Te7 Te   2 n  0.8988900000  0.5000000000  0.1905600000  1.0000000000 Dx,0,Dz
