# CIF file created by FINDSYM, version 7.1.3

data_findsym-output
_audit_creation_method FINDSYM

_cell_length_a     15.1955683624
_cell_length_b     8.7731652838
_cell_length_c     20.7828006246
_cell_angle_alpha  90.0000000000
_cell_angle_beta   104.1061723083
_cell_angle_gamma  90.0000000000
_cell_volume       2687.0763433050

_symmetry_space_group_name_H-M "C 1 m 1"
_symmetry_Int_Tables_number 8
_space_group.reference_setting '008:C -2y'
_space_group.transform_Pp_abc a,b,c;0,0,0

loop_
_space_group_symop_id
_space_group_symop_operation_xyz
1 x,y,z
2 x,-y,z
3 x+1/2,y+1/2,z
4 x+1/2,-y+1/2,z

loop_
_atom_type_symbol
Bi    
Te    

loop_
_atom_site_label
_atom_site_type_symbol
_atom_site_symmetry_multiplicity
_atom_site_Wyckoff_symbol
_atom_site_fract_x
_atom_site_fract_y
_atom_site_fract_z
_atom_site_occupancy
_atom_site_fract_symmform
Bi1  Bi   2 a  0.2966900000  0.0000000000  0.3954700000  1.0000000000 Dx,0,Dz  
Bi2  Bi   2 a  0.7033100000  0.0000000000  0.6045300000  1.0000000000 Dx,0,Dz  
Bi3  Bi   4 b  0.5493900000  0.2527000000  0.3954700000  1.0000000000 Dx,Dy,Dz 
Bi4  Bi   4 b -0.0493850000  0.2472950000  0.6045400000  1.0000000000 Dx,Dy,Dz 
Bi5  Bi   4 b  0.5499850000  0.2499850000  0.8999600000  1.0000000000 Dx,Dy,Dz 
Bi6  Bi   4 b -0.0499950000  0.2500050000  0.1000400000  1.0000000000 Dx,Dy,Dz 
Bi7  Bi   2 a  0.7999800000  0.0000000000  0.8999700000  1.0000000000 Dx,0,Dz  
Bi8  Bi   2 a  0.2000200000  0.0000000000  0.1000400000  1.0000000000 Dx,0,Dz  
Bi9  Bi   2 a  0.7997500000  0.0000000000  0.3992500000  1.0000000000 Dx,0,Dz  
Bi10 Bi   2 a  0.2002500000  0.0000000000  0.6007500000  1.0000000000 Dx,0,Dz  
Te1  Te   2 a  0.3954300000  0.0000000000  0.1862900000  1.0000000000 Dx,0,Dz  
Te2  Te   2 a  0.6045700000  0.0000000000  0.8137100000  1.0000000000 Dx,0,Dz  
Te3  Te   2 a  0.3957500000  0.0000000000  0.6886000000  1.0000000000 Dx,0,Dz  
Te4  Te   2 a  0.6042500000  0.0000000000  0.3114000000  1.0000000000 Dx,0,Dz  
Te5  Te   4 b  0.6464275000  0.2506725000  0.6885950000  1.0000000000 Dx,Dy,Dz 
Te6  Te   4 b  0.8535800000  0.2493200000  0.3114100000  1.0000000000 Dx,Dy,Dz 
Te7  Te   4 b  0.6452125000  0.2513675000  0.1870150000  1.0000000000 Dx,Dy,Dz 
Te8  Te   4 b  0.8547775000  0.2486575000  0.8130000000  1.0000000000 Dx,Dy,Dz 
Te9  Te   2 a  0.8965500000  0.0000000000  0.1869900000  1.0000000000 Dx,0,Dz  
Te10 Te   2 a  0.1034050000  0.0000000000  0.8129800000  1.0000000000 Dx,0,Dz  
Te11 Te   2 a -0.0994050000  0.0000000000  0.7017600000  1.0000000000 Dx,0,Dz  
Te12 Te   2 a  0.0994200000  0.0000000000  0.2982400000  1.0000000000 Dx,0,Dz  
Te13 Te   2 a  0.0000000000  0.0000000000  0.0000000000  1.0000000000 Dx,0,Dz  
Te14 Te   2 a  0.0000000000  0.0000000000  0.5000000000  1.0000000000 Dx,0,Dz  
Te15 Te   4 b  0.2500025000  0.2499975000  0.4999950000  1.0000000000 Dx,Dy,Dz 
Te16 Te   4 b  0.2499975000  0.2499775000 -0.0000100000  1.0000000000 Dx,Dy,Dz 
Te17 Te   2 a  0.5000400000  0.0000000000  0.0000100000  1.0000000000 Dx,0,Dz  
Te18 Te   2 a  0.5000000000  0.0000000000  0.4999900000  1.0000000000 Dx,0,Dz
