# CIF file created by FINDSYM, version 7.1.3

data_findsym-output
_audit_creation_method FINDSYM

_cell_length_a     8.7731609682
_cell_length_b     8.7731652838
_cell_length_c     20.7828006240
_cell_angle_alpha  89.9999997110
_cell_angle_beta   102.1849109111
_cell_angle_gamma  119.9999489149
_cell_volume       1343.5381716127

_symmetry_space_group_name_H-M "P -1"
_symmetry_Int_Tables_number 2
_space_group.reference_setting '002:-P 1'
_space_group.transform_Pp_abc a,b,c;0,0,0

loop_
_space_group_symop_id
_space_group_symop_operation_xyz
1 x,y,z
2 -x,-y,-z

loop_
_atom_type_symbol
Bi    
Te    

loop_
_atom_site_label
_atom_site_type_symbol
_atom_site_symmetry_multiplicity
_atom_site_Wyckoff_symbol
_atom_site_fract_x
_atom_site_fract_y
_atom_site_fract_z
_atom_site_occupancy
_atom_site_fract_symmform
Bi1  Bi   2 i  0.6047950000  0.3104000000  0.1634150000  1.0000000000 Dx,Dy,Dz 
Bi2  Bi   2 i -0.0936600000  0.7027350000  0.8572000000  1.0000000000 Dx,Dy,Dz 
Bi3  Bi   2 i  0.1186150000  0.3139250000  0.6645700000  1.0000000000 Dx,Dy,Dz 
Bi4  Bi   2 i  0.8944200000  0.1842750000  0.8470950000  1.0000000000 Dx,Dy,Dz 
Bi5  Bi   2 i  0.0820500000  0.7706400000  0.6414700000  1.0000000000 Dx,Dy,Dz 
Bi6  Bi   2 i  0.3981200000  0.2226600000  0.3522600000  1.0000000000 Dx,Dy,Dz 
Bi7  Bi   2 i  0.5984000000  0.8115150000  0.1522500000  1.0000000000 Dx,Dy,Dz 
Te1  Te   2 i  0.2085500000  0.6141200000  0.0648800000  1.0000000000 Dx,Dy,Dz 
Te2  Te   2 i  0.7909300000  0.4162350000  0.4364100000  1.0000000000 Dx,Dy,Dz 
Te3  Te   2 i  0.6928250000  0.5631550000  0.5680850000  1.0000000000 Dx,Dy,Dz 
Te4  Te   2 i  0.2890200000  0.3884650000 -0.0701750000  1.0000000000 Dx,Dy,Dz 
Te5  Te   2 i  0.7301700000  0.0894850000  0.5588000000  1.0000000000 Dx,Dy,Dz 
Te6  Te   2 i  0.2968500000  0.8865050000 -0.0663600000  1.0000000000 Dx,Dy,Dz 
Te7  Te   2 i  0.2191450000  0.1131700000  0.0651450000  1.0000000000 Dx,Dy,Dz 
Te8  Te   2 i  0.8172450000 -0.0611850000  0.4663700000  1.0000000000 Dx,Dy,Dz 
Te9  Te   2 i -0.0004700000  0.0144500000  0.2514100000  1.0000000000 Dx,Dy,Dz 
Te10 Te   2 i  0.4991750000 -0.0060400000  0.7443550000  1.0000000000 Dx,Dy,Dz 
Te11 Te   2 i  0.5093550000  0.4900000000  0.7480750000  1.0000000000 Dx,Dy,Dz 
Te12 Te   2 i  0.0125350000  0.5147050000  0.2572400000  1.0000000000 Dx,Dy,Dz
