# CIF file created by FINDSYM, version 7.1.3

data_findsym-output
_audit_creation_method FINDSYM

_cell_length_a     15.1955758369
_cell_length_b     8.7731609684
_cell_length_c     20.7828083038
_cell_angle_alpha  90.0000000000
_cell_angle_beta   104.1062565540
_cell_angle_gamma  90.0000000000
_cell_volume       2687.0763433039

_symmetry_space_group_name_H-M "C 1 m 1"
_symmetry_Int_Tables_number 8
_space_group.reference_setting '008:C -2y'
_space_group.transform_Pp_abc a,b,c;0,0,0

loop_
_space_group_symop_id
_space_group_symop_operation_xyz
1 x,y,z
2 x,-y,z
3 x+1/2,y+1/2,z
4 x+1/2,-y+1/2,z

loop_
_atom_type_symbol
Bi    
Te    

loop_
_atom_site_label
_atom_site_type_symbol
_atom_site_symmetry_multiplicity
_atom_site_Wyckoff_symbol
_atom_site_fract_x
_atom_site_fract_y
_atom_site_fract_z
_atom_site_occupancy
_atom_site_fract_symmform
Bi1  Bi   2 a  0.7046800000  0.0000000000  0.1057100000  1.0000000000 Dx,0,Dz  
Bi2  Bi   2 a  0.3027100000  0.0000000000 -0.0968800000  1.0000000000 Dx,0,Dz  
Bi3  Bi   4 b  0.4510300000  0.2522600000  0.6019300000  1.0000000000 Dx,Dy,Dz 
Bi4  Bi   4 b  0.0494250000  0.2522850000  0.3972600000  1.0000000000 Dx,Dy,Dz 
Bi5  Bi   2 a  0.1974300000  0.0000000000  0.0958500000  1.0000000000 Dx,0,Dz  
Bi6  Bi   2 a  0.7983900000  0.0000000000  0.8958600000  1.0000000000 Dx,0,Dz  
Bi7  Bi   2 a  0.7049000000  0.0000000000  0.6059200000  1.0000000000 Dx,0,Dz  
Bi8  Bi   2 a  0.3022700000  0.0000000000  0.4048900000  1.0000000000 Dx,0,Dz  
Bi9  Bi   4 b  0.4491000000  0.2538300000  0.1036500000  1.0000000000 Dx,Dy,Dz 
Bi10 Bi   4 b  0.0494250000  0.2512150000  0.8994800000  1.0000000000 Dx,Dy,Dz 
Bi11 Bi   2 a  0.1986600000  0.0000000000  0.5973400000  1.0000000000 Dx,0,Dz  
Bi12 Bi   2 a  0.7954500000  0.0000000000  0.3951800000  1.0000000000 Dx,0,Dz  
Bi13 Bi   2 a  0.8999300000  0.0000000000  0.1973800000  1.0000000000 Dx,0,Dz  
Bi14 Bi   2 a  0.5997000000  0.0000000000  0.3031500000  1.0000000000 Dx,0,Dz  
Bi15 Bi   2 a -0.0984600000  0.0000000000  0.6973700000  1.0000000000 Dx,0,Dz  
Te1  Te   2 a  0.6034500000  0.0000000000  0.8116200000  1.0000000000 Dx,0,Dz  
Te2  Te   2 a  0.3944800000  0.0000000000  0.1859600000  1.0000000000 Dx,0,Dz  
Te3  Te   4 b  0.3539700000  0.2502100000  0.3133500000  1.0000000000 Dx,Dy,Dz 
Te4  Te   4 b  0.1458950000  0.2499450000  0.6861300000  1.0000000000 Dx,Dy,Dz 
Te5  Te   2 a  0.1041000000  0.0000000000  0.8119700000  1.0000000000 Dx,0,Dz  
Te6  Te   2 a  0.3956100000  0.0000000000  0.6854900000  1.0000000000 Dx,0,Dz  
Te7  Te   4 b  0.3544200000  0.2513000000  0.8111600000  1.0000000000 Dx,Dy,Dz 
Te8  Te   4 b  0.1443250000  0.2503250000  0.1863400000  1.0000000000 Dx,Dy,Dz 
Te9  Te   2 a  0.1048900000  0.0000000000  0.3139200000  1.0000000000 Dx,0,Dz  
Te10 Te   2 a -0.0009200000  0.0000000000 -0.0007800000  1.0000000000 Dx,0,Dz  
Te11 Te   4 b  0.7500250000  0.2491550000  0.4995200000  1.0000000000 Dx,Dy,Dz 
Te12 Te   2 a  0.4985800000  0.0000000000 -0.0046200000  1.0000000000 Dx,0,Dz  
Te13 Te   2 a  0.0002100000  0.0000000000  0.5026700000  1.0000000000 Dx,0,Dz  
Te14 Te   4 b  0.7493800000  0.2501700000 -0.0013200000  1.0000000000 Dx,Dy,Dz 
Te15 Te   2 a  0.4999300000  0.0000000000  0.4969600000  1.0000000000 Dx,0,Dz
