# CIF file created by FINDSYM, version 7.1.3

data_findsym-output
_audit_creation_method FINDSYM

_cell_length_a     8.7731609684
_cell_length_b     8.7731652838
_cell_length_c     20.7828006246
_cell_angle_alpha  89.9999997110
_cell_angle_beta   102.1849109150
_cell_angle_gamma  119.9999489145
_cell_volume       1343.5381716515

_symmetry_space_group_name_H-M "P 1"
_symmetry_Int_Tables_number 1
_space_group.reference_setting '001:P 1'
_space_group.transform_Pp_abc a,b,c;0,0,0

loop_
_space_group_symop_id
_space_group_symop_operation_xyz
1 x,y,z

loop_
_atom_type_symbol
Bi    
Te    

loop_
_atom_site_label
_atom_site_type_symbol
_atom_site_symmetry_multiplicity
_atom_site_Wyckoff_symbol
_atom_site_fract_x
_atom_site_fract_y
_atom_site_fract_z
_atom_site_occupancy
_atom_site_fract_symmform
Bi1  Bi   1 a  0.3971300000  0.7037300000  0.1065800000  1.0000000000 Dx,Dy,Dz 
Bi2  Bi   1 a  0.5966200000  0.3014500000 -0.0984900000  1.0000000000 Dx,Dy,Dz 
Bi3  Bi   1 a  0.4016400000  0.7009200000  0.6016400000  1.0000000000 Dx,Dy,Dz 
Bi4  Bi   1 a  0.6089700000  0.3037000000  0.4006800000  1.0000000000 Dx,Dy,Dz 
Bi5  Bi   1 a -0.0983200000  0.6997900000  0.6017000000  1.0000000000 Dx,Dy,Dz 
Bi6  Bi   1 a  0.0963500000  0.3036200000  0.4018600000  1.0000000000 Dx,Dy,Dz 
Bi7  Bi   1 a -0.0900400000  0.7004900000  0.1034400000  1.0000000000 Dx,Dy,Dz 
Bi8  Bi   1 a  0.1018200000  0.3010000000  0.8998100000  1.0000000000 Dx,Dy,Dz 
Bi9  Bi   1 a -0.0990000000  0.2026100000  0.6003400000  1.0000000000 Dx,Dy,Dz 
Bi10 Bi   1 a  0.0952100000  0.7900900000  0.4000200000  1.0000000000 Dx,Dy,Dz 
Bi11 Bi   1 a  0.8998800000  0.2008100000  0.0997700000  1.0000000000 Dx,Dy,Dz 
Bi12 Bi   1 a  0.0967500000  0.7971700000  0.8980600000  1.0000000000 Dx,Dy,Dz 
Bi13 Bi   1 a  0.3978700000  0.1933600000  0.1026000000  1.0000000000 Dx,Dy,Dz 
Bi14 Bi   1 a  0.5997600000  0.7984900000 -0.0991700000  1.0000000000 Dx,Dy,Dz 
Bi15 Bi   1 a  0.4006400000  0.1998600000  0.5984900000  1.0000000000 Dx,Dy,Dz 
Bi16 Bi   1 a  0.6006900000  0.7995900000  0.3998100000  1.0000000000 Dx,Dy,Dz 
Bi17 Bi   1 a  0.2956000000 -0.0999800000  0.1967000000  1.0000000000 Dx,Dy,Dz 
Bi18 Bi   1 a  0.7937500000  0.8950100000  0.1871100000  1.0000000000 Dx,Dy,Dz 
Bi19 Bi   1 a  0.7930300000  0.8988600000  0.6894100000  1.0000000000 Dx,Dy,Dz 
Te1  Te   1 a  0.2083600000  0.6057700000  0.8121000000  1.0000000000 Dx,Dy,Dz 
Te2  Te   1 a  0.7893200000  0.3937800000  0.1851000000  1.0000000000 Dx,Dy,Dz 
Te3  Te   1 a  0.2092200000  0.6040800000  0.3128500000  1.0000000000 Dx,Dy,Dz 
Te4  Te   1 a  0.7902300000  0.3946700000  0.6854500000  1.0000000000 Dx,Dy,Dz 
Te5  Te   1 a  0.7080800000  0.6042000000  0.3115900000  1.0000000000 Dx,Dy,Dz 
Te6  Te   1 a  0.2913700000  0.3957500000  0.6855200000  1.0000000000 Dx,Dy,Dz 
Te7  Te   1 a  0.7082800000  0.6060700000  0.8112000000  1.0000000000 Dx,Dy,Dz 
Te8  Te   1 a  0.2893000000  0.3936200000  0.1862500000  1.0000000000 Dx,Dy,Dz 
Te9  Te   1 a  0.7082200000  0.1034500000  0.3122500000  1.0000000000 Dx,Dy,Dz 
Te10 Te   1 a  0.2927300000  0.8966600000  0.6859700000  1.0000000000 Dx,Dy,Dz 
Te11 Te   1 a  0.7079300000  0.1033500000  0.8119300000  1.0000000000 Dx,Dy,Dz 
Te12 Te   1 a  0.2093000000  0.1050800000  0.8164900000  1.0000000000 Dx,Dy,Dz 
Te13 Te   1 a  0.2122100000  0.1049100000  0.3200200000  1.0000000000 Dx,Dy,Dz 
Te14 Te   1 a -0.0004700000  0.0006900000 -0.0026400000  1.0000000000 Dx,Dy,Dz 
Te15 Te   1 a  0.0000200000 -0.0002700000  0.4979300000  1.0000000000 Dx,Dy,Dz 
Te16 Te   1 a  0.4989000000  0.0001400000  0.4975200000  1.0000000000 Dx,Dy,Dz 
Te17 Te   1 a  0.4977900000  0.0011000000 -0.0028300000  1.0000000000 Dx,Dy,Dz 
Te18 Te   1 a  0.4991100000  0.4989500000  0.4978900000  1.0000000000 Dx,Dy,Dz 
Te19 Te   1 a  0.4959500000  0.4980500000 -0.0055900000  1.0000000000 Dx,Dy,Dz
