# CIF file created by FINDSYM, version 7.1.3

data_findsym-output
_audit_creation_method FINDSYM

_cell_length_a     15.1955758369
_cell_length_b     8.7731609684
_cell_length_c     11.2793309759
_cell_angle_alpha  90.0000000000
_cell_angle_beta   116.6838964443
_cell_angle_gamma  90.0000000000
_cell_volume       1343.5381716519

_symmetry_space_group_name_H-M "C 1 m 1"
_symmetry_Int_Tables_number 8
_space_group.reference_setting '008:C -2y'
_space_group.transform_Pp_abc a,b,c;0,0,0

loop_
_space_group_symop_id
_space_group_symop_operation_xyz
1 x,y,z
2 x,-y,z
3 x+1/2,y+1/2,z
4 x+1/2,-y+1/2,z

loop_
_atom_type_symbol
Bi    
Te    

loop_
_atom_site_label
_atom_site_type_symbol
_atom_site_symmetry_multiplicity
_atom_site_Wyckoff_symbol
_atom_site_fract_x
_atom_site_fract_y
_atom_site_fract_z
_atom_site_occupancy
_atom_site_fract_symmform
Bi1  Bi   2 a  0.4007600000  0.0000000000  0.2041300000  1.0000000000 Dx,0,Dz  
Bi2  Bi   2 a  0.6032000000  0.0000000000  0.8055600000  1.0000000000 Dx,0,Dz  
Bi3  Bi   4 b  0.6505625000  0.2498175000  0.2021300000  1.0000000000 Dx,Dy,Dz 
Bi4  Bi   4 b  0.8489350000  0.2506450000  0.7997600000  1.0000000000 Dx,Dy,Dz 
Bi5  Bi   2 a  0.8979550000  0.0000000000  0.1919600000  1.0000000000 Dx,0,Dz  
Te1  Te   2 a  0.0943150000  0.0000000000  0.7938500000  1.0000000000 Dx,0,Dz  
Te2  Te   2 a  0.2179825000  0.0000000000  0.6184900000  1.0000000000 Dx,0,Dz  
Te3  Te   2 a  0.7873375000  0.0000000000  0.3710300000  1.0000000000 Dx,0,Dz  
Te4  Te   4 b  0.4634075000  0.2579625000  0.6316300000  1.0000000000 Dx,Dy,Dz 
Te5  Te   4 b  0.0383575000  0.2471575000  0.3697400000  1.0000000000 Dx,Dy,Dz 
Te6  Te   2 a  0.7092725000  0.0000000000  0.6287100000  1.0000000000 Dx,0,Dz  
Te7  Te   2 a  0.2953900000  0.0000000000  0.3840200000  1.0000000000 Dx,0,Dz  
Te8  Te   2 a -0.0026200000  0.0000000000  0.0025300000  1.0000000000 Dx,0,Dz  
Te9  Te   4 b  0.2459125000  0.2435775000 -0.0053000000  1.0000000000 Dx,Dy,Dz 
Te10 Te   2 a  0.5020625000  0.0000000000  0.0038100000  1.0000000000 Dx,0,Dz
