# CIF file created by FINDSYM, version 7.1.3

data_findsym-output
_audit_creation_method FINDSYM

_cell_length_a     8.7731631261
_cell_length_b     8.7731631261
_cell_length_c     60.4683335566
_cell_angle_alpha  90.0000000000
_cell_angle_beta   90.0000000000
_cell_angle_gamma  120.0000000000
_cell_volume       4030.6124401127

_symmetry_space_group_name_H-M "R 3 m (hexagonal axes)"
_symmetry_Int_Tables_number 160
_space_group.reference_setting '160:R 3 -2"'
_space_group.transform_Pp_abc a,b,c;0,0,0

loop_
_space_group_symop_id
_space_group_symop_operation_xyz
1 x,y,z
2 -y,x-y,z
3 -x+y,-x,z
4 -y,-x,z
5 x,x-y,z
6 -x+y,y,z
7 x+1/3,y+2/3,z+2/3
8 -y+1/3,x-y+2/3,z+2/3
9 -x+y+1/3,-x+2/3,z+2/3
10 -y+1/3,-x+2/3,z+2/3
11 x+1/3,x-y+2/3,z+2/3
12 -x+y+1/3,y+2/3,z+2/3
13 x+2/3,y+1/3,z+1/3
14 -y+2/3,x-y+1/3,z+1/3
15 -x+y+2/3,-x+1/3,z+1/3
16 -y+2/3,-x+1/3,z+1/3
17 x+2/3,x-y+1/3,z+1/3
18 -x+y+2/3,y+1/3,z+1/3

loop_
_atom_type_symbol
Bi    
Te    

loop_
_atom_site_label
_atom_site_type_symbol
_atom_site_symmetry_multiplicity
_atom_site_Wyckoff_symbol
_atom_site_fract_x
_atom_site_fract_y
_atom_site_fract_z
_atom_site_occupancy
_atom_site_fract_symmform
Bi1  Bi   3 a  0.0000000000  0.0000000000  0.6951500427  1.0000000000 0,0,Dz    
Bi2  Bi   9 b  0.1658483333  0.8341516667  0.1335567094  1.0000000000 Dx,-Dx,Dz 
Bi3  Bi   9 b  0.5008300000  0.4991700000  0.2020200427  1.0000000000 Dx,-Dx,Dz 
Bi4  Bi   9 b  0.5017483333  0.4982516667  0.2988667094  1.0000000000 Dx,-Dx,Dz 
Bi5  Bi   9 b  0.1668444444  0.8331555556  0.0329555983  1.0000000000 Dx,-Dx,Dz 
Bi6  Bi   3 a  0.0000000000  0.0000000000  0.7999700427  1.0000000000 0,0,Dz    
Bi7  Bi   3 a  0.0000000000  0.0000000000  0.2004933761  1.0000000000 0,0,Dz    
Te1  Te   3 a  0.0000000000  0.0000000000  0.3953500427  1.0000000000 0,0,Dz    
Te2  Te   3 a  0.0000000000  0.0000000000  0.6042600427  1.0000000000 0,0,Dz    
Te3  Te   9 b  0.1660022222  0.8339977778  0.2298544872  1.0000000000 Dx,-Dx,Dz 
Te4  Te   9 b  0.4999744444  0.5000255556  0.1046755983  1.0000000000 Dx,-Dx,Dz 
Te5  Te   9 b  0.8312500000  0.1687500000  0.0609500427  1.0000000000 Dx,-Dx,Dz 
Te6  Te   9 b  0.8325400000  0.1674600000  0.2703800427  1.0000000000 Dx,-Dx,Dz 
Te7  Te   3 a  0.0000000000  0.0000000000 -0.0999832906  1.0000000000 0,0,Dz    
Te8  Te   3 a  0.0000000000  0.0000000000  0.1044000427  1.0000000000 0,0,Dz    
Te9  Te   3 a  0.0000000000  0.0000000000 -0.0002532906  1.0000000000 0,0,Dz    
Te10 Te   9 b  0.8326583333  0.1673416667  0.1675167094  1.0000000000 Dx,-Dx,Dz 
Te11 Te   9 b  0.1641300000  0.8358700000  0.3323400427  1.0000000000 Dx,-Dx,Dz 
Te12 Te   3 a  0.0000000000  0.0000000000  0.5012900427  1.0000000000 0,0,Dz
