# CIF file created by FINDSYM, version 7.1.3

data_findsym-output
_audit_creation_method FINDSYM

_cell_length_a     15.1955603663
_cell_length_b     8.7731699003
_cell_length_c     20.7828044891
_cell_angle_alpha  90.0000000000
_cell_angle_beta   104.1062147040
_cell_angle_gamma  90.0000000000
_cell_volume       2687.0763433043

_symmetry_space_group_name_H-M "C 1 m 1"
_symmetry_Int_Tables_number 8
_space_group.reference_setting '008:C -2y'
_space_group.transform_Pp_abc a,b,c;0,0,0

loop_
_space_group_symop_id
_space_group_symop_operation_xyz
1 x,y,z
2 x,-y,z
3 x+1/2,y+1/2,z
4 x+1/2,-y+1/2,z

loop_
_atom_type_symbol
Bi    
Te    

loop_
_atom_site_label
_atom_site_type_symbol
_atom_site_symmetry_multiplicity
_atom_site_Wyckoff_symbol
_atom_site_fract_x
_atom_site_fract_y
_atom_site_fract_z
_atom_site_occupancy
_atom_site_fract_symmform
Bi1  Bi   2 a  0.7008509459  0.0000000000  0.1025318919  1.0000000000 Dx,0,Dz  
Bi2  Bi   2 a  0.2996559459  0.0000000000  0.8989418919  1.0000000000 Dx,0,Dz  
Bi3  Bi   4 b -0.0491815541  0.2523825000  0.6000718919  1.0000000000 Dx,Dy,Dz 
Bi4  Bi   4 b  0.5543559459  0.2628900000  0.4001718919  1.0000000000 Dx,Dy,Dz 
Bi5  Bi   2 a  0.6984309459  0.0000000000  0.6000618919  1.0000000000 Dx,0,Dz  
Bi6  Bi   2 a  0.2914459459  0.0000000000  0.4001618919  1.0000000000 Dx,0,Dz  
Bi7  Bi   4 b -0.0528265541  0.2575275000  0.0990218919  1.0000000000 Dx,Dy,Dz 
Bi8  Bi   4 b  0.5534459459  0.2411950000 -0.0984931081  1.0000000000 Dx,Dy,Dz 
Bi9  Bi   2 a  0.2046209459  0.0000000000  0.0989918919  1.0000000000 Dx,0,Dz  
Bi10 Bi   2 a  0.7945609459  0.0000000000 -0.0985181081  1.0000000000 Dx,0,Dz  
Bi11 Bi   2 a  0.1999709459  0.0000000000  0.5999018919  1.0000000000 Dx,0,Dz  
Bi12 Bi   2 a  0.7983509459  0.0000000000  0.3950418919  1.0000000000 Dx,0,Dz  
Te1  Te   4 b  0.8570509459  0.2551300000  0.3160218919  1.0000000000 Dx,Dy,Dz 
Te2  Te   4 b  0.6450084459  0.2487825000  0.6862318919  1.0000000000 Dx,Dy,Dz 
Te3  Te   2 a  0.6019209459  0.0000000000  0.3160118919  1.0000000000 Dx,0,Dz  
Te4  Te   2 a  0.3962259459  0.0000000000  0.6862318919  1.0000000000 Dx,0,Dz  
Te5  Te   4 b  0.8568309459  0.2466100000  0.8171018919  1.0000000000 Dx,Dy,Dz 
Te6  Te   4 b  0.6425159459  0.2554800000  0.1830268919  1.0000000000 Dx,Dy,Dz 
Te7  Te   2 a  0.1034509459  0.0000000000  0.8170918919  1.0000000000 Dx,0,Dz  
Te8  Te   2 a  0.8980109459  0.0000000000  0.1830318919  1.0000000000 Dx,0,Dz  
Te9  Te   2 a  0.8950259459  0.0000000000  0.6850718919  1.0000000000 Dx,0,Dz  
Te10 Te   2 a -0.0000090541  0.0000000000 -0.0000381081  1.0000000000 Dx,0,Dz  
Te11 Te   4 b  0.2502559459  0.2503750000  0.5003818919  1.0000000000 Dx,Dy,Dz 
Te12 Te   2 a -0.0001190541  0.0000000000  0.5003818919  1.0000000000 Dx,0,Dz  
Te13 Te   4 b  0.2497459459  0.2509600000  0.0001518919  1.0000000000 Dx,Dy,Dz 
Te14 Te   2 a  0.5006959459  0.0000000000  0.0001518919  1.0000000000 Dx,0,Dz  
Te15 Te   2 a  0.4978059459  0.0000000000  0.4934018919  1.0000000000 Dx,0,Dz
