# CIF file created by FINDSYM, version 7.1.3

data_findsym-output
_audit_creation_method FINDSYM

_cell_length_a     8.7731675920
_cell_length_b     8.7731675920
_cell_length_c     30.2341667783
_cell_angle_alpha  90.0000000000
_cell_angle_beta   90.0000000000
_cell_angle_gamma  120.0000000000
_cell_volume       2015.3082718427

_symmetry_space_group_name_H-M "R 3 m (hexagonal axes)"
_symmetry_Int_Tables_number 160
_space_group.reference_setting '160:R 3 -2"'
_space_group.transform_Pp_abc a,b,c;0,0,0

loop_
_space_group_symop_id
_space_group_symop_operation_xyz
1 x,y,z
2 -y,x-y,z
3 -x+y,-x,z
4 -y,-x,z
5 x,x-y,z
6 -x+y,y,z
7 x+1/3,y+2/3,z+2/3
8 -y+1/3,x-y+2/3,z+2/3
9 -x+y+1/3,-x+2/3,z+2/3
10 -y+1/3,-x+2/3,z+2/3
11 x+1/3,x-y+2/3,z+2/3
12 -x+y+1/3,y+2/3,z+2/3
13 x+2/3,y+1/3,z+1/3
14 -y+2/3,x-y+1/3,z+1/3
15 -x+y+2/3,-x+1/3,z+1/3
16 -y+2/3,-x+1/3,z+1/3
17 x+2/3,x-y+1/3,z+1/3
18 -x+y+2/3,y+1/3,z+1/3

loop_
_atom_type_symbol
Bi    
Te    

loop_
_atom_site_label
_atom_site_type_symbol
_atom_site_symmetry_multiplicity
_atom_site_Wyckoff_symbol
_atom_site_fract_x
_atom_site_fract_y
_atom_site_fract_z
_atom_site_occupancy
_atom_site_fract_symmform
Bi1 Bi   9 b  0.5021733333  0.4978266667  0.0979664167  1.0000000000 Dx,-Dx,Dz 
Bi2 Bi   9 b  0.1672783333  0.8327216667  0.2332864167  1.0000000000 Dx,-Dx,Dz 
Bi3 Bi   3 a  0.0000000000  0.0000000000  0.1007664167  1.0000000000 0,0,Dz    
Bi4 Bi   3 a  0.0000000000  0.0000000000 -0.0994402500  1.0000000000 0,0,Dz    
Bi5 Bi   3 a  0.0000000000  0.0000000000  0.7023397500  1.0000000000 0,0,Dz    
Te1 Te   9 b  0.4995366667  0.5004633333  0.2920130833  1.0000000000 Dx,-Dx,Dz 
Te2 Te   9 b  0.1668655556  0.8331344444  0.0431708611  1.0000000000 Dx,-Dx,Dz 
Te3 Te   3 a  0.0000000000  0.0000000000  0.2911197500  1.0000000000 0,0,Dz    
Te4 Te   9 b  0.8329483333  0.1670516667  0.1679064167  1.0000000000 Dx,-Dx,Dz 
Te5 Te   3 a  0.0000000000  0.0000000000  0.5021597500  1.0000000000 0,0,Dz
